YYYY MM DD HH    DURATION(hhhh) #RECORDS
YYYY MM DD HH MM DURATION(hhmm) LAT LON HGT(m) RATE(/h) AREA(m2) HEAT(w)
2021 03 03 00 6 1
2021 03 03 00 00 0600 40.00 116.00 159 8957394 0.0 0.0