YYYY MM DD HH    DURATION(hhhh) #RECORDS
YYYY MM DD HH MM DURATION(hhmm) LAT LON HGT(m) RATE(/h) AREA(m2) HEAT(w)
2021 04 02 06 6 1
2021 04 02 06 00 0600 29.548992 106.482831 82 8957394 0.0 0.0