YYYY MM DD HH    DURATION(hhhh) #RECORDS
YYYY MM DD HH MM DURATION(hhmm) LAT LON HGT(m) RATE(/h) AREA(m2) HEAT(w)
2021 04 02 00 6 1
2021 04 02 00 00 0600 39.92187 116.326581 60 8957394 0.0 0.0